$ Simcenter (NX) Nastran Example Input File -- cantilever_plate.dat
$ Linear Static Analysis (SOL 101) of a cantilever plate
$ --------------------------------------------------------------
ID CANTILEVER,PLATE
SOL 101
TIME 20
CEND
$ --------------------------------------------------------------
TITLE = LINEAR STATIC ANALYSIS OF A CANTILEVER PLATE
SUBTITLE = SOL 101 EXAMPLE, 4x2 CQUAD4 MESH
ECHO = NONE
SPC = 100
LOAD = 100
DISP = ALL
STRESS = ALL
SPCFORCES = ALL
PARAM,POST,-1
PARAM,AUTOSPC,YES
BEGIN BULK
$ --------------------------------------------------------------
GRID,1,,0.0,0.0,0.0
GRID,2,,25.0,0.0,0.0
GRID,3,,50.0,0.0,0.0
GRID,4,,75.0,0.0,0.0
GRID,5,,100.0,0.0,0.0
GRID,6,,0.0,25.0,0.0
GRID,7,,25.0,25.0,0.0
GRID,8,,50.0,25.0,0.0
GRID,9,,75.0,25.0,0.0
GRID,10,,100.0,25.0,0.0
GRID,11,,0.0,50.0,0.0
GRID,12,,25.0,50.0,0.0
GRID,13,,50.0,50.0,0.0
GRID,14,,75.0,50.0,0.0
GRID,15,,100.0,50.0,0.0
$ --------------------------------------------------------------
CQUAD4,11,100,1,2,7,6
CQUAD4,12,100,2,3,8,7
CQUAD4,13,100,3,4,9,8
CQUAD4,14,100,4,5,10,9
CQUAD4,21,100,6,7,12,11
CQUAD4,22,100,7,8,13,12
CQUAD4,23,100,8,9,14,13
CQUAD4,24,100,9,10,15,14
$ --------------------------------------------------------------
PSHELL,100,10,0.1,10
MAT1,10,1.0E7,,0.3
$ --------------------------------------------------------------
SPC1,100,123456,1,6,11
$ --------------------------------------------------------------
FORCE,100,5,,100.0,0.0,0.0,-1.0
FORCE,100,10,,100.0,0.0,0.0,-1.0
FORCE,100,15,,100.0,0.0,0.0,-1.0
ENDDATA
